Flow Title=initial_plan
Program Version=6.41
Number of Profiles= 1 
Profile Names=PF 1
River Rch & RM=River 1,Bury            ,1146.55 
     33.70
Boundary for River Rch & Prof#=River 1,Bury            , 1 
Up Type= 0 
Dn Type= 3 
Dn Slope=0.0001
DSS Import StartDate=
DSS Import StartTime=
DSS Import EndDate=
DSS Import EndTime=
DSS Import GetInterval= 0 
DSS Import Interval=
DSS Import GetPeak= 0 
DSS Import FillOption= 0 
