Geom Title=Bury_Turcotte_Glace
Program Version=6.41
Viewing Rectangle= 218716.28 , 220625.72 , 5044052.05 , 5042822.95 

River Reach=River 1         ,Bury            
Reach XY= 1079 
     220143.1138    5043219.7189     220142.2369    5043219.4014
       220141.36    5043219.0839     220140.4831    5043218.7664
     220139.6062    5043218.4489     220138.7293    5043218.1314
     220137.8524    5043217.8139     220136.9755    5043217.4964
     220136.0985    5043217.1789     220135.2216    5043216.8614
     220134.3447    5043216.5439     220133.4678    5043216.2264
     220132.5909    5043215.9089      220131.714    5043215.5914
     220130.8371    5043215.2739     220129.8846    5043215.0526
     220128.9321    5043214.8313     220127.9796      5043214.61
     220127.0271    5043214.3887     220126.0746    5043214.1674
     220125.1221    5043213.9462     220124.1696    5043213.7249
     220123.2171    5043213.5036     220122.2646    5043213.2823
     220121.3121     5043213.061     220120.3596    5043212.8397
     220119.4071    5043212.6184     220118.4546    5043212.3971
     220117.5021    5043212.1758     220116.5496    5043211.9545
     220115.5971    5043211.7332     220114.6446     5043211.512
     220113.6921    5043211.2907     220112.7396    5043211.0694
     220111.7871    5043210.8481     220110.8346    5043210.6268
     220109.8821    5043210.4055      220108.979    5043210.0104
     220108.0759    5043209.6153     220107.1728    5043209.2202
     220106.2696    5043208.8251     220105.3665      5043208.43
     220104.4634    5043208.0349     220103.5603    5043207.6398
     220102.6572    5043207.2446     220101.7541    5043206.8495
      220100.851    5043206.4544     220099.9479    5043206.0593
     220099.0447    5043205.6642     220098.1416    5043205.2691
     220097.2385     5043204.874     220096.3354    5043204.4789
     220095.4711    5043204.1085     220094.6068    5043203.7381
     220093.7425    5043203.3677     220092.8782    5043202.9972
     220092.0139    5043202.6268     220091.1496    5043202.2564
     220090.2852     5043201.886     220089.4209    5043201.5156
     220088.5566    5043201.1452     220087.6923    5043200.7747
      220086.828    5043200.4043     220085.9637    5043200.0339
      220085.023    5043199.9163     220084.0822    5043199.7987
     220083.1415    5043199.6811     220082.2007    5043199.5635
       220081.26    5043199.4459     220080.3192    5043199.3283
     220079.3785    5043199.2107     220078.4377    5043199.0931
      220077.497    5043198.9755     220076.5526     5043198.829
     220075.6083    5043198.6824     220074.6639    5043198.5359
     220073.7196    5043198.3893     220072.7752    5043198.2428
     220071.8308    5043198.0963     220070.8865    5043197.9497
     220069.9421    5043197.8032     220068.9977    5043197.6567
     220068.0534    5043197.5101      220067.109    5043197.3636
     220066.1647     5043197.217     220065.2203    5043197.0705
     220064.2774    5043197.2437     220063.3345    5043197.4169
     220062.3917      5043197.59     220061.4488    5043197.7632
     220060.5059    5043197.9364      220059.563    5043198.1096
     220058.6201    5043198.2828     220057.6772     5043198.456
     220056.7344    5043198.6291     220055.7915    5043198.8023
     220054.8486    5043198.9755     220053.9314    5043199.2577
     220053.0142      5043199.54      220052.097    5043199.8222
     220051.1797    5043200.1044     220050.2625    5043200.3867
     220049.3453    5043200.6689     220048.6196    5043201.1829
     220047.8939     5043201.697     220047.1682     5043202.211
     220046.4424    5043202.7251     220045.7167    5043203.2391
      220044.991    5043203.7532     220044.2653    5043204.2672
      220043.588    5043204.9869     220042.9106    5043205.7065
     220042.2333    5043206.4262     220041.5559    5043207.1458
     220040.8786    5043207.8655     220040.3494    5043208.6063
     220039.8203    5043209.3472     220039.2911     5043210.088
      220038.762    5043210.8289     220038.2328    5043211.5697
     220037.7036    5043212.3105     220037.1745    5043213.0514
     220036.6453    5043213.7922     220036.3127    5043214.6389
       220035.98    5043215.4855     220035.6474    5043216.3322
     220035.3148    5043217.1789     220034.9822    5043218.0256
     220034.6495    5043218.8722     220034.3169    5043219.7189
     220034.1052    5043220.6714     220033.8936    5043221.6239
     220033.6819    5043222.5764     220033.4702    5043223.5289
     220033.2586    5043224.4814     220033.0469    5043225.4339
     220032.7882    5043226.3276     220032.5295    5043227.2213
     220032.2708     5043228.115     220032.0121    5043229.0087
     220031.7534    5043229.9025     220031.4947    5043230.7962
      220031.236    5043231.6899     220030.9773    5043232.5836
     220030.7186    5043233.4773     220030.3423     5043234.371
      220029.966    5043235.2647     220029.5897    5043236.1584
     220029.2134    5043237.0521     220028.8371    5043237.9458
     220028.4608    5043238.8395     220028.0845    5043239.7332
     220027.7082    5043240.6269     220027.3319    5043241.5206
     220027.1026    5043242.4202     220026.8733    5043243.3198
      220026.644    5043244.2194     220026.4147    5043245.1189
     220026.1854    5043246.0185      220025.956    5043246.9181
     220025.7267    5043247.8177     220025.4974    5043248.7173
     220025.2681    5043249.6169     220025.0388    5043250.5164
     220024.8095     5043251.416     220024.5802    5043252.3156
     220024.1304    5043253.0829     220023.6806    5043253.8502
     220023.2308    5043254.6175     220022.7811    5043255.3848
     220022.3313    5043256.1521     220021.8815    5043256.9194
     220021.4317    5043257.6867     220020.9819     5043258.454
     220020.5939    5043259.1948     220020.2058    5043259.9357
     220019.8177    5043260.6765     220019.4297    5043261.4173
     220019.0417    5043262.1582     220018.6536     5043262.899
     220018.0186     5043263.581     220017.3836    5043264.2631
     220016.7486    5043264.9451     220016.1136    5043265.6271
     220015.4786    5043266.3092     220014.8436    5043266.9912
     220014.2086    5043267.6732     220013.5736    5043268.3553
     220012.9386    5043269.0373     220012.3271    5043269.7899
     220011.7156    5043270.5425     220011.1041    5043271.2951
     220010.4926    5043272.0477     220009.8812    5043272.8003
     220009.2697    5043273.5529     220008.6582    5043274.3055
     220008.0467    5043275.0581     220007.4352    5043275.8107
     220006.8237    5043276.5163     220006.2122    5043277.2218
     220005.6008    5043277.9274     220004.9893    5043278.6329
     220004.3778    5043279.3385     220003.7663     5043280.044
     220003.1549    5043280.7496     220002.5434    5043281.4551
     220001.9319    5043282.1607     220001.1487    5043282.7534
     220000.3656     5043283.346     219999.5824    5043283.9387
     219998.7992    5043284.5314     219998.0161    5043285.1241
     219997.2329    5043285.7167     219996.4497    5043286.3094
     219995.6665    5043286.9021     219994.8834    5043287.4947
     219994.1002    5043288.0874       219993.28    5043288.5637
     219992.4598    5043289.0399     219991.6396    5043289.5162
     219990.8194    5043289.9924     219989.9991    5043290.4687
     219989.1789    5043290.9449     219988.3587    5043291.4212
     219987.5385    5043291.8974     219986.6011      5043292.23
     219985.6637    5043292.5626     219984.7263    5043292.8952
      219983.789    5043293.2279     219982.8516    5043293.5605
     219981.9142    5043293.8931     219980.9768    5043294.2257
     219980.1066    5043294.4374     219979.2364     5043294.649
     219978.3662    5043294.8607      219977.496    5043295.0724
     219976.6259     5043295.284     219975.7557    5043295.4957
     219974.8855    5043295.7074     219974.0153     5043295.919
     219973.1451    5043296.1307     219972.2349    5043296.3212
     219971.3248    5043296.5117     219970.4146    5043296.7022
     219969.5045    5043296.8927     219968.5943    5043297.0832
     219967.6841    5043297.2737      219966.774    5043297.4642
     219965.8638    5043297.6547     219964.9537    5043297.8452
     219964.0435    5043298.0357     219963.2414    5043298.5704
     219962.4393    5043299.1052     219961.6372    5043299.6399
     219960.8351    5043300.1746     219960.0329    5043300.7094
     219959.2308    5043301.2441     219958.4287    5043301.7789
     219957.6266    5043302.3136     219956.8245    5043302.8483
     219956.0224    5043303.3831     219955.2203    5043303.9178
     219954.4182    5043304.4525     219953.6161    5043304.9873
      219952.814     5043305.522     219952.0118    5043306.0568
     219951.2097    5043306.5915     219950.4076    5043307.1262
     219949.6055     5043307.661     219948.8034    5043308.1957
     219947.9567    5043308.4981     219947.1101    5043308.8005
     219946.2634    5043309.1029     219945.4167    5043309.4052
       219944.57    5043309.7076     219943.7234      5043310.01
     219942.8767    5043310.3124       219942.03    5043310.7622
     219941.1834     5043311.212     219940.3367    5043311.6618
     219939.4901    5043312.1116     219938.6434    5043312.5614
     219937.7967    5043313.0112     219936.9501     5043313.461
     219936.1034    5043313.9108     219935.2567    5043314.3605
     219934.4101    5043314.8103     219933.5634    5043315.2601
     219932.7168    5043315.7099     219931.8701    5043316.1597
     219931.0234    5043316.6095     219930.1768    5043317.0593
     219929.3301    5043317.5091     219928.5796    5043318.1633
     219927.8292    5043318.8176     219927.0787    5043319.4718
     219926.3282    5043320.1261     219925.5778    5043320.7803
     219924.8273    5043321.4346     219924.0769    5043322.0888
     219923.3264    5043322.7431     219922.5759    5043323.3973
     219921.8255    5043324.0516      219921.075    5043324.7058
     219920.3732    5043325.3854     219919.6713    5043326.0649
     219918.9695    5043326.7445     219918.2676    5043327.4241
     219917.5658    5043328.1036     219916.8639    5043328.7832
     219916.1621    5043329.4627     219915.4603    5043330.1423
     219914.7584    5043330.8219     219914.0566    5043331.5014
     219913.3547     5043332.181     219912.6529    5043332.8606
     219911.9511    5043333.5401     219911.2492    5043334.2197
     219910.5474    5043334.8992     219909.8455    5043335.5788
     219909.1437    5043336.2584     219908.4418    5043336.9379
       219907.74    5043337.6175     219906.8933    5043338.1188
     219906.0467    5043338.6201        219905.2    5043339.1214
     219904.3533    5043339.6228     219903.5067    5043340.1241
       219902.66    5043340.6254     219901.8133    5043341.1267
     219900.9667     5043341.628       219900.12    5043342.1293
     219899.2733    5043342.6307     219898.4266     5043343.132
       219897.58    5043343.6333     219896.7333    5043344.1346
     219895.8866    5043344.6359       219895.04    5043345.1372
     219894.1933    5043345.6386     219893.3466    5043346.1399
        219892.5    5043346.6412     219891.6533    5043347.1425
     219890.8066    5043347.6281       219889.96    5043348.1137
     219889.1133    5043348.5993     219888.2666    5043349.0849
       219887.42    5043349.5704     219886.5733     5043350.056
     219885.7266    5043350.5416       219884.88    5043351.0272
     219884.0333    5043351.5128     219883.1867    5043351.9984
       219882.34     5043352.484     219881.4933    5043352.9696
     219880.6467    5043353.4551        219879.8    5043353.9407
     219878.9533    5043354.4263     219878.1067    5043354.9119
       219877.26    5043355.3975     219876.5796    5043356.0325
     219875.8993    5043356.6675     219875.2189    5043357.3025
     219874.5385    5043357.9375     219873.8582    5043358.5725
     219873.1778    5043359.2075     219872.4975    5043359.8425
     219871.8171    5043360.4775     219871.1367    5043361.1125
     219870.4564    5043361.7475      219869.776    5043362.3825
     219869.0956    5043363.0175     219868.4153    5043363.6525
     219867.7349    5043364.2875      219866.947    5043364.8284
     219866.1592    5043365.3694     219865.3713    5043365.9103
     219864.5834    5043366.4512     219863.7955    5043366.9921
     219863.0077    5043367.5331     219862.2198     5043368.074
     219861.4319    5043368.6149     219860.6441    5043369.1559
     219859.8562    5043369.6968     219859.0683    5043370.2377
     219858.2804    5043370.7786     219857.4926    5043371.3196
     219856.7047    5043371.8605     219855.9168    5043372.4014
     219855.1289    5043372.9423     219854.3411    5043373.4833
     219853.5532    5043374.0242     219852.7065    5043374.5416
     219851.8599     5043375.059     219851.0132    5043375.5764
     219850.1665    5043376.0938     219849.3199    5043376.6112
     219848.4732    5043377.1286     219847.6265    5043377.6461
     219846.7799    5043378.1635     219845.9332    5043378.6809
     219845.0865    5043379.1983     219844.2399    5043379.7157
     219843.3932    5043380.2331     219842.5465    5043380.7505
     219841.6999    5043381.2679     219840.8532    5043381.7853
     219840.0065    5043382.3027     219839.1599    5043382.8201
     219838.3132    5043383.3375     219837.4665    5043383.8549
     219836.6199    5043384.3723     219835.7732    5043384.8898
     219834.9265    5043385.4072     219834.0799    5043385.9246
     219833.2332     5043386.442     219832.3865    5043386.9594
     219831.5399    5043387.4768     219830.6932    5043387.9942
     219829.9641    5043388.6174      219829.235    5043389.2407
      219828.506    5043389.8639     219827.7769    5043390.4872
     219827.0478    5043391.1104     219826.3187    5043391.7337
     219825.5897    5043392.3569     219824.8606    5043392.9802
     219824.1315    5043393.6034     219823.4024    5043394.2266
     219822.6733    5043394.8499     219821.9443    5043395.4731
     219821.2152    5043396.0964     219820.4861    5043396.7196
      219819.757    5043397.3429      219819.028    5043397.9661
     219818.2989    5043398.5894     219817.5698    5043399.2126
     219816.8025    5043399.8388     219816.0352     5043400.465
     219815.2679    5043401.0912     219814.5006    5043401.7173
     219813.7333    5043402.3435     219812.9661    5043402.9697
     219812.1988    5043403.5959     219811.4315    5043404.2221
     219810.6642    5043404.8483     219809.8969    5043405.4744
     219809.1296    5043406.1006     219808.3623    5043406.7268
      219807.595     5043407.353     219806.8277    5043407.9792
     219806.0604    5043408.6054     219805.2931    5043409.2315
     219804.5258    5043409.8577     219803.7585    5043410.4839
     219802.9913    5043411.1101      219802.224    5043411.7363
     219801.4567    5043412.3625     219800.6894    5043412.9886
     219799.9221    5043413.6148     219799.1548     5043414.241
     219798.5198    5043415.0054     219797.8848    5043415.7697
     219797.2498    5043416.5341     219796.6148    5043417.2984
     219795.9798    5043418.0628     219795.3448    5043418.8271
     219794.7098    5043419.5915     219794.0748    5043420.3558
     219793.4398    5043421.1202     219792.8048    5043421.8845
     219792.1698    5043422.6489     219791.5348    5043423.4132
     219790.8998    5043424.1776     219790.2648    5043424.9419
     219789.6298    5043425.7063     219788.9948    5043426.4706
     219788.3598     5043427.235     219787.7248    5043427.9993
     219786.9262    5043428.5381     219786.1277    5043429.0769
     219785.3291    5043429.6157     219784.5305    5043430.1545
      219783.732    5043430.6933     219782.9334     5043431.232
     219782.1349    5043431.7708     219781.3363    5043432.3096
     219780.5377    5043432.8484     219779.7392    5043433.3872
     219778.9406     5043433.926      219778.142    5043434.4648
     219777.3435    5043435.0036     219776.5449    5043435.5424
     219775.7463    5043436.0812     219774.9478      5043436.62
     219774.1492    5043437.1587     219773.3507    5043437.6975
     219772.5521    5043438.2363     219771.7535    5043438.7751
      219770.955    5043439.3139     219770.1564    5043439.8527
      219769.465    5043440.4877     219768.7735    5043441.1227
     219768.0821    5043441.7577     219767.3906    5043442.3927
     219766.6992    5043443.0277     219766.0077    5043443.6627
     219765.3163    5043444.2977     219764.6248    5043444.9327
     219763.9334    5043445.5677     219763.2419    5043446.2027
     219762.5505    5043446.8377      219761.859    5043447.4727
     219761.1676    5043448.1077     219760.4761    5043448.7427
     219759.7847    5043449.3777      219759.065    5043450.0127
     219758.3454    5043450.6477     219757.6257    5043451.2827
      219756.906    5043451.9177     219756.1864    5043452.5527
     219755.4667    5043453.1877      219754.747    5043453.8227
     219754.0274    5043454.4577     219753.3077    5043455.0927
     219752.5881    5043455.7277     219751.8684    5043456.3627
     219751.1487    5043456.9977     219750.4291    5043457.6327
     219749.7094    5043458.2677     219748.9897    5043458.9027
     219748.2701    5043459.5377     219747.5504    5043460.1727
     219746.8307    5043460.8077     219746.1111    5043461.4427
     219745.3914    5043462.0777     219744.6506    5043462.6951
     219743.9097    5043463.3124     219743.1689    5043463.9298
      219742.428    5043464.5472     219741.6872    5043465.1645
     219740.9464    5043465.7819     219740.2055    5043466.3993
     219739.4647    5043467.0166     219738.7238     5043467.634
      219737.983    5043468.2514     219737.2421    5043468.8687
     219736.5013    5043469.4861     219735.7722    5043470.1681
     219735.0432    5043470.8502     219734.3141    5043471.5322
      219733.585    5043472.2142      219732.856    5043472.8963
     219732.1269    5043473.5783     219731.3978    5043474.2603
     219730.6688    5043474.9424     219729.9397    5043475.6244
     219729.1123    5043476.0862     219728.2848     5043476.548
     219727.4574    5043477.0099       219726.63    5043477.4717
     219725.8026    5043477.9335     219724.9751    5043478.3953
     219724.1477    5043478.8571     219723.3203    5043479.3189
     219722.4929    5043479.7808     219721.6654    5043480.2426
      219720.838    5043480.7044     219720.0619    5043481.2453
     219719.2858    5043481.7863     219718.5097    5043482.3272
     219717.7336    5043482.8681     219716.9574    5043483.4091
     219716.1813      5043483.95     219715.4052    5043484.4909
     219714.6291    5043485.0319      219713.853    5043485.5728
     219713.1945    5043486.1843      219712.536    5043486.7958
     219711.8774    5043487.4072     219711.2189    5043488.0187
     219710.5604    5043488.6302     219709.9019    5043489.2417
     219709.2433    5043489.8531     219708.5848    5043490.4646
     219707.9263    5043491.0761     219707.0973    5043491.5876
     219706.2682    5043492.0991     219705.4392    5043492.6107
     219704.6102    5043493.1222     219703.7811    5043493.6337
     219702.9521    5043494.1453     219702.1231    5043494.6568
      219701.294    5043495.1683      219700.465    5043495.6798
      219699.636    5043496.1914     219698.8069    5043496.7029
     219697.9779    5043497.2144     219697.1548    5043497.7318
     219696.3316    5043498.2492     219695.5085    5043498.7666
     219694.6853     5043499.284     219693.8622    5043499.8015
      219693.039    5043500.3189     219692.2159    5043500.8363
     219691.3927    5043501.3537     219690.5696    5043501.8711
      219689.646     5043502.025     219688.7223     5043502.179
     219687.7987    5043502.3329     219686.8751    5043502.4869
     219685.9514    5043502.6408     219685.0278    5043502.7948
     219684.1041    5043502.9487     219683.1805    5043503.1027
     219682.2569    5043503.2566     219681.3332    5043503.4106
     219680.4096    5043503.5645     219679.4571     5043503.591
     219678.5046    5043503.6174     219677.5521    5043503.6439
     219676.5995    5043503.6703      219675.647    5043503.6968
     219674.6945    5043503.7232      219673.742    5043503.7497
     219672.7895    5043503.7761     219672.0275    5043503.5221
     219671.2655    5043503.2681     219670.5035    5043503.0141
     219669.7415    5043502.7601     219668.9795    5043502.5061
     219668.1064    5043502.1622     219667.2333    5043501.8182
     219666.3601    5043501.4743      219665.487    5043501.1303
     219664.6139    5043500.7864     219663.7408    5043500.4424
     219662.8676    5043500.0985     219661.9945    5043499.7545
     219661.1949    5043499.3076     219660.3952    5043498.8608
     219659.5956    5043498.4139      219658.796    5043497.9671
     219657.9963    5043497.5202     219657.1967    5043497.0734
     219656.3971    5043496.6265     219655.5974    5043496.1797
     219654.7978    5043495.7328     219654.0746    5043495.1507
     219653.3514    5043494.5686     219652.6282    5043493.9866
      219651.905    5043493.4045     219651.1818    5043492.8224
     219650.4587    5043492.2403     219649.7355    5043491.6582
     219649.0123    5043491.0761     219648.2891    5043490.4941
     219647.5659     5043489.912     219646.8427    5043489.3299
     219646.1195    5043488.7478      219645.461    5043488.1363
     219644.8025    5043487.5248     219644.1439    5043486.9133
     219643.4854    5043486.3018     219642.8269    5043485.6904
     219642.1684    5043485.0789     219641.5098    5043484.4674
     219640.8513    5043483.8559     219640.1928    5043483.2444
      219639.793    5043482.4213     219639.3932    5043481.5981
     219638.9934     5043480.775     219638.5936    5043479.9518
     219638.1937    5043479.1287     219637.7939    5043478.3055
     219637.3941    5043477.4824     219636.9943    5043476.6592
     219636.5945    5043475.8361     219636.1241    5043474.9659
     219635.6537    5043474.0957     219635.1834    5043473.2255
      219634.713    5043472.3553     219634.2426    5043471.4852
     219633.7722     5043470.615     219633.3019    5043469.7448
     219632.8315    5043468.8746     219632.3611    5043468.0044
     219632.0436    5043467.0872     219631.7261    5043466.1699
     219631.4086    5043465.2527     219631.0911    5043464.3355
     219630.7736    5043463.4182     219630.4561     5043462.501
     219630.0979    5043461.6218     219629.7397    5043460.7425
     219629.3815    5043459.8633     219629.0233    5043458.9841
     219628.6651    5043458.1048     219628.3069    5043457.2256
     219627.9486    5043456.3464     219627.5904    5043455.4672
     219627.2322    5043454.5879      219626.874    5043453.7087
     219626.5158    5043452.8295     219626.1576    5043451.9502
     219625.7994     5043451.071     219625.5242    5043450.1608
     219625.2491    5043449.2507     219624.9739    5043448.3405
     219624.6988    5043447.4303     219624.4236    5043446.5202
     219624.1484      5043445.61     219623.8733    5043444.6998
     219623.5981    5043443.7896      219623.323    5043442.8795
     219623.0478    5043441.9693     219623.0478    5043441.3343
     219622.7155     5043440.421     219622.3833    5043439.5078
      219622.051    5043438.5945     219621.7187    5043437.6812
     219621.3864    5043436.7679     219621.0542    5043435.8547
     219620.7219    5043434.9414     219620.3896    5043434.0281
     219620.0573    5043433.1148     219619.7251    5043432.2016
     219619.3928    5043431.2883     219619.0605     5043430.375
     219618.7282    5043429.4617      219618.396    5043428.5485
     219618.0637    5043427.6352     219617.6139    5043426.8018
     219617.1641    5043425.9683     219616.7143    5043425.1349
     219616.2645    5043424.3015     219615.8147     5043423.468
     219615.3649    5043422.6346     219614.9151    5043421.8011
     219614.4654    5043420.9677     219614.0156    5043420.1343
     219613.5658    5043419.3008      219613.116    5043418.4674
     219612.6662     5043417.634     219612.2164    5043416.8005
     219611.7666    5043415.9671     219611.3168    5043415.1336
      219610.867    5043414.3002     219609.9992    5043414.0462
     219609.1313    5043413.7922     219608.2635    5043413.5382
     219607.3957    5043413.2842     219606.5279    5043413.0302
       219605.66    5043412.7762     219604.7922    5043412.5222
     219603.9244    5043412.2682     219603.0565    5043412.0142
     219602.1887    5043411.7602     219601.2538    5043411.9895
      219600.319    5043412.2188     219599.3841    5043412.4481
     219598.4492    5043412.6774     219597.5144    5043412.9067
     219596.5795    5043413.1361     219595.6446    5043413.3654
     219594.7098    5043413.5947     219593.7749     5043413.824
       219592.84    5043414.0533     219591.9052    5043414.2826
     219590.9703    5043414.5119     219590.0274    5043414.7236
     219589.0845    5043414.9352     219588.1417    5043415.1469
     219587.1988    5043415.3586     219586.2559    5043415.5702
      219585.313    5043415.7819     219584.3701    5043415.9935
     219583.4272    5043416.2052     219582.4844    5043416.4169
     219581.5415    5043416.6285     219580.5986    5043416.8402
     219580.0106    5043417.5458     219579.4227    5043418.2513
     219578.8347    5043418.9569     219578.2468    5043419.6624
     219577.6588     5043420.368     219577.0709    5043421.0735
     219576.4829    5043421.7791      219575.895    5043422.4846
      219575.307    5043423.1902     219574.9651    5043424.0857
     219574.6232    5043424.9812     219574.2812    5043425.8767
     219573.9393    5043426.7723     219573.5974    5043427.6678
     219573.2555    5043428.5633     219572.9135    5043429.4588
     219572.5716    5043430.3543     219572.2297    5043431.2498
     219571.8878    5043432.1454     219571.5458    5043433.0409
     219571.2039    5043433.9364      219570.862    5043434.8319
     219570.7096    5043435.7886     219570.5572    5043436.7454
     219570.4048    5043437.7021     219570.2524    5043438.6588
        219570.1    5043439.6156     219569.9476    5043440.5723
     219569.7952    5043441.5291     219569.6428    5043442.4858
     219569.4904    5043443.4425      219569.338    5043444.3993
     219569.1856     5043445.356     219569.0332    5043446.3127
     219568.8808    5043447.2695     219568.7284    5043448.2262
      219568.576    5043449.1829     219568.4236    5043450.1397
     219568.2712    5043451.0964     219568.1188    5043452.0531
     219567.9664    5043453.0099      219567.814    5043453.9666
     219567.6616    5043454.9234     219567.5092    5043455.8801
     219567.3568    5043456.8368     219567.2044    5043457.7936
      219567.052    5043458.7503     219566.9197    5043459.7116
     219566.7874    5043460.6729     219566.6551    5043461.6343
     219566.5228    5043462.5956     219566.3905    5043463.5569
     219566.2582    5043464.5182     219566.1259    5043465.4795
     219565.9936    5043466.4409     219565.8613    5043467.4022
      219565.729    5043468.3635     219565.5967    5043469.3248
     219565.4645    5043470.2862     219565.3322    5043471.2475
     219565.1999    5043472.2088     219565.0676    5043473.1701
     219564.9353    5043474.1314      219564.803    5043475.0928
     219564.6707    5043476.0541     219564.5384    5043477.0154
     219564.4061    5043477.9767     219564.2738     5043478.938
     219564.1415    5043479.8994     219564.0092    5043480.8607
     219563.8769     5043481.822      219563.727    5043482.7921
      219563.577    5043483.7623     219563.4271    5043484.7324
     219563.2772    5043485.7026     219563.1273    5043486.6727
     219562.9773    5043487.6429     219562.8274     5043488.613
     219562.6775    5043489.5831     219562.5275    5043490.5533
     219562.3776    5043491.5234     219562.2277    5043492.4936
     219562.0777    5043493.4637     219561.9278    5043494.4338
     219561.7779     5043495.404      219561.628    5043496.3741
      219561.478    5043497.3443     219561.3281    5043498.3144
     219561.1782    5043499.2846     219561.0282    5043500.2547
     219560.8783    5043501.2248     219560.7284     5043502.195
     219560.5785    5043503.1651     219560.4285    5043504.1353
     219560.2786    5043505.1054     219560.0923    5043506.0706
     219559.9061    5043507.0358     219559.7198     5043508.001
     219559.5335    5043508.9662     219559.3473    5043509.9314
      219559.161    5043510.8966     219558.9747    5043511.8618
     219558.7885     5043512.827     219558.6022    5043513.7922
     219558.4159    5043514.7574     219558.2297    5043515.7226
     219558.0434    5043516.6878     219557.8571     5043517.653
     219557.6708    5043518.6182     219557.4846    5043519.5834
     219557.2983    5043520.5486      219557.112    5043521.5138
     219556.9258     5043522.479     219556.7395    5043523.4442
     219556.5532    5043524.4094      219556.367    5043525.3746
     219556.1807    5043526.3398     219555.9944     5043527.305
     219555.8082    5043528.2702     219555.6219    5043529.2354
     219555.4808    5043530.1997     219555.3397    5043531.1639
     219555.1986    5043532.1282     219555.0575    5043533.0925
     219554.9163    5043534.0567     219554.7752     5043535.021
     219554.6341    5043535.9852      219554.493    5043536.9495
     219554.3519    5043537.9138     219554.2108     5043538.878
     219554.0697    5043539.8423     219553.9286    5043540.8066
     219553.7875    5043541.7708     219553.6463    5043542.7351
     219553.5052    5043543.6993     219553.3641    5043544.6636